{
   "completed_at" : "20240810T024622Z",
   "completed_status" : "Success",
   "created_at" : "2024-08-09T19:45:15",
   "current_step" : 8,
   "eplusout_err" : "Program Version,EnergyPlus, Version 23.2.0-7636e6b3e9, YMD=2024.08.09 19:46,\n   ** Warning ** Timestep: Requested number (1) is less than the suggested minimum of 4.\n   **   ~~~   ** Please see entry for Timestep in Input/Output Reference for discussion of considerations.\n   ** Warning ** PerformancePrecisionTradeoffs: Carroll MRT radiant exchange method is selected.\n   ** Warning ** ProcessScheduleInput: Schedule:Constant=\"ALWAYS OFF DISCRETE\", Blank Schedule Type Limits Name input -- will not be validated.\n   ** Warning ** ProcessScheduleInput: Schedule:Constant=\"ALWAYS ON CONTINUOUS\", Blank Schedule Type Limits Name input -- will not be validated.\n   ** Warning ** CalculateZoneVolume: 1 zone is not fully enclosed. For more details use:  Output:Diagnostics,DisplayExtrawarnings; \n   ** Warning ** Check input. Pump nominal power or motor efficiency is set to 0, for pump=PUMP VARIABLE SPEED 1\n   ** Warning ** Output:Meter: invalid Key Name=\"DISTRICTCOOLING:FACILITY\" - not found.\n   ** Warning ** Output:Meter: invalid Key Name=\"DISTRICTHEATING:FACILITY\" - not found.\n   ** Warning ** Output:Meter:MeterFileOnly requested for \"Electricity:Facility\" (TimeStep), already on \"Output:Meter\". Will report to both eplusout.eso and eplusout.mtr\n   ************* Testing Individual Branch Integrity\n   ************* All Branches passed integrity testing\n   ************* Testing Individual Supply Air Path Integrity\n   ************* All Supply Air Paths passed integrity testing\n   ************* Testing Individual Return Air Path Integrity\n   ************* All Return Air Paths passed integrity testing\n   ************* No node connection errors were found.\n   ************* Beginning Simulation\n   ** Warning ** Processing Monthly Tabular Reports: Variable names not valid for this simulation\n   **   ~~~   ** ...use Output:Diagnostics,DisplayExtraWarnings; to show more details on individual variables.\n   ** Warning ** CalcDoe2DXCoil: Coil:Cooling:DX:SingleSpeed \"CENTRAL AC AND FURNACE CLG COIL\" - Air-cooled condenser inlet dry-bulb temperature below 0 C. Outdoor dry-bulb temperature = -4.00\n   **   ~~~   **  ... Occurrence info = RUN PERIOD 1, 02/28 19:00 - 20:00\n   **   ~~~   ** ... Operation at low ambient temperatures may require special performance curves.\n   ** Warning ** The resource referenced by LifeCycleCost:UsePriceEscalation= \"U.S. AVG  COMMERCIAL-ELECTRICITY\" has no energy cost. \n   **   ~~~   ** ... It is likely that the wrong resource is used. The resource should match the meter used in Utility:Tariff.\n   ** Warning ** The resource referenced by LifeCycleCost:UsePriceEscalation= \"U.S. AVG  COMMERCIAL-DISTILLATE OIL\" has no energy cost. \n   **   ~~~   ** ... It is likely that the wrong resource is used. The resource should match the meter used in Utility:Tariff.\n   ** Warning ** The resource referenced by LifeCycleCost:UsePriceEscalation= \"U.S. AVG  COMMERCIAL-RESIDUAL OIL\" has no energy cost. \n   **   ~~~   ** ... It is likely that the wrong resource is used. The resource should match the meter used in Utility:Tariff.\n   ** Warning ** The resource referenced by LifeCycleCost:UsePriceEscalation= \"U.S. AVG  COMMERCIAL-NATURAL GAS\" has no energy cost. \n   **   ~~~   ** ... It is likely that the wrong resource is used. The resource should match the meter used in Utility:Tariff.\n   ** Warning ** The resource referenced by LifeCycleCost:UsePriceEscalation= \"U.S. AVG  COMMERCIAL-COAL\" has no energy cost. \n   **   ~~~   ** ... It is likely that the wrong resource is used. The resource should match the meter used in Utility:Tariff.\n   ************* Simulation Error Summary *************\n   ************* There are 1 unused objects in input.\n   ************* Use Output:Diagnostics,DisplayUnusedObjects; to see them.\n   ************* There are 2 unused schedules in input.\n   ************* There are 2 unused week schedules in input.\n   ************* There are 2 unused day schedules in input.\n   ************* Use Output:Diagnostics,DisplayUnusedSchedules; to see them.\n   *************\n   ************* ===== Recurring Error Summary =====\n   ************* The following recurring error messages occurred.\n   *************\n   *************  ** Warning ** CalcDoe2DXCoil: Coil:Cooling:DX:SingleSpeed=\"CENTRAL AC AND FURNACE CLG COIL\" - Low condenser dry-bulb temperature error continues...\n   *************  **   ~~~   **   This error occurred 5 total times;\n   *************  **   ~~~   **   during Warmup 0 times;\n   *************  **   ~~~   **   during Sizing 0 times.\n   *************  **   ~~~   **   Max=-1.000000 [C]  Min=-5.600000 [C]\n   *************\n   ************* EnergyPlus Warmup Error Summary. During Warmup: 0 Warning; 0 Severe Errors.\n   ************* EnergyPlus Sizing Error Summary. During Sizing: 0 Warning; 0 Severe Errors.\n   ************* EnergyPlus Completed Successfully-- 20 Warning; 0 Severe Errors; Elapsed Time=00hr 00min  8.00sec\n\u0000\u0000\u0000\u0000\u0000\u0000\u0000\u0000\u0000\u0000\u0000\u0000\u0000\u0000\u0000\u0000\u0000\u0000\u0000\u0000\u0000\u0000\u0000\u0000\u0000\u0000\u0000\u0000\u0000\u0000\u0000\u0000\u0000\u0000\u0000\u0000\u0000\u0000\u0000\u0000\u0000\u0000\u0000\u0000\u0000\u0000\u0000\u0000\u0000\u0000\u0000\u0000\u0000\u0000",
   "file_paths" : 
   [
      "c:/Users/Arnav/Documents/Research/Trane Technologies/resstock-3.2.0_repo/resstock-3.2.0/minneapolis_upgrades_single_3_4_unit_residence/run1/generated_files",
      "./files",
      "./weather",
      "../../files",
      "../../weather",
      "./"
   ],
   "hash" : "438970A8",
   "measure_paths" : 
   [
      "c:/Users/Arnav/Documents/Research/Trane Technologies/resstock-3.2.0_repo/resstock-3.2.0/measures",
      "c:/Users/Arnav/Documents/Research/Trane Technologies/resstock-3.2.0_repo/resstock-3.2.0/resources/hpxml-measures"
   ],
   "run_options" : 
   {
      "skip_zip_results" : true
   },
   "started_at" : "20240810T024518Z",
   "steps" : 
   [
      {
         "arguments" : 
         {
            "building_id" : "1",
            "emissions_electricity_folders" : "data/cambium/2022/LRMER_MidCase_15",
            "emissions_fuel_oil_values" : "",
            "emissions_natural_gas_values" : "",
            "emissions_propane_values" : "",
            "emissions_scenario_names" : "LRMER_MidCase_15",
            "emissions_types" : "CO2e",
            "emissions_wood_values" : "",
            "sample_weight" : 139647020,
            "simulation_control_run_period_begin_day_of_month" : 1,
            "simulation_control_run_period_begin_month" : 1,
            "simulation_control_run_period_calendar_year" : 2007,
            "simulation_control_run_period_end_day_of_month" : 31,
            "simulation_control_run_period_end_month" : 12,
            "simulation_control_timestep" : 60,
            "utility_bill_detailed_filepaths" : "",
            "utility_bill_electricity_fixed_charges" : "",
            "utility_bill_electricity_marginal_rates" : "",
            "utility_bill_fuel_oil_fixed_charges" : "",
            "utility_bill_fuel_oil_marginal_rates" : "",
            "utility_bill_natural_gas_fixed_charges" : "",
            "utility_bill_natural_gas_marginal_rates" : "",
            "utility_bill_propane_fixed_charges" : "",
            "utility_bill_propane_marginal_rates" : "",
            "utility_bill_pv_compensation_types" : "",
            "utility_bill_pv_feed_in_tariff_rates" : "",
            "utility_bill_pv_monthly_grid_connection_fee_units" : "",
            "utility_bill_pv_monthly_grid_connection_fees" : "",
            "utility_bill_pv_net_metering_annual_excess_sellback_rate_types" : "",
            "utility_bill_pv_net_metering_annual_excess_sellback_rates" : "",
            "utility_bill_scenario_names" : "Bills",
            "utility_bill_simple_filepaths" : "",
            "utility_bill_wood_fixed_charges" : "",
            "utility_bill_wood_marginal_rates" : ""
         },
         "measure_dir_name" : "BuildExistingModel",
         "result" : 
         {
            "completed_at" : "20240810T024548Z",
            "measure_class_name" : "BuildExistingModel",
            "measure_display_name" : "Build Existing Model",
            "measure_name" : "build_existing_model",
            "measure_taxonomy" : "Whole Building.Space Types",
            "measure_type" : "ModelMeasure",
            "measure_uid" : "dedf59bb-3b88-4f16-8755-2c1ff5519cbf",
            "measure_version_id" : "a678a2cf-fbd1-4cd7-be1d-4507e1de3607",
            "measure_version_modified" : "20231127T221035Z",
            "measure_xml_checksum" : "2C38F48B",
            "started_at" : "20240810T024523Z",
            "stderr" : "",
            "stdout" : "[openstudio.measure.OSRunner] <Error> Cannot find current Workflow Step\n[openstudio.measure.OSRunner] <Error> Cannot find current Workflow Step\n[openstudio.measure.OSRunner] <Error> Cannot find current Workflow Step\n",
            "step_errors" : [],
            "step_files" : [],
            "step_info" : 
            [
               "Assigning option 'Non-CBSA West North Central' for parameter 'AHS Region'.",
               "Assigning option 'No' for parameter 'AIANNH Area'.",
               "Assigning option '6A' for parameter 'ASHRAE IECC Climate Zone 2004'.",
               "Assigning option '6A' for parameter 'ASHRAE IECC Climate Zone 2004 - 2A Split'.",
               "Assigning option '0-30%' for parameter 'Area Median Income'.",
               "Assigning option 'Hour23' for parameter 'Bathroom Spot Vent Hour'.",
               "Assigning option 'None' for parameter 'Battery'.",
               "Assigning option '2' for parameter 'Bedrooms'.",
               "Assigning option 'Cold' for parameter 'Building America Climate Zone'.",
               "Assigning option 'None' for parameter 'CEC Climate Zone'.",
               "Assigning option 'Standard Efficiency' for parameter 'Ceiling Fan'.",
               "Assigning option 'West North Central' for parameter 'Census Division'.",
               "Assigning option 'West North Central' for parameter 'Census Division RECS'.",
               "Assigning option 'Midwest' for parameter 'Census Region'.",
               "Assigning option 'MN, Minneapolis' for parameter 'City'.",
               "Assigning option 'None' for parameter 'Clothes Dryer'.",
               "Assigning option '100% Usage' for parameter 'Clothes Dryer Usage Level'.",
               "Assigning option 'None' for parameter 'Clothes Washer'.",
               "Assigning option 'None' for parameter 'Clothes Washer Presence'.",
               "Assigning option '100% Usage' for parameter 'Clothes Washer Usage Level'.",
               "Assigning option 'Gas' for parameter 'Cooking Range'.",
               "Assigning option '100% Usage' for parameter 'Cooking Range Usage Level'.",
               "Assigning option '68F' for parameter 'Cooling Setpoint'.",
               "Assigning option 'No' for parameter 'Cooling Setpoint Has Offset'.",
               "Assigning option '0F' for parameter 'Cooling Setpoint Offset Magnitude'.",
               "Assigning option 'None' for parameter 'Cooling Setpoint Offset Period'.",
               "Assigning option 'Double-Loaded Interior' for parameter 'Corridor'.",
               "Assigning option 'MN, Hennepin County' for parameter 'County'.",
               "Assigning option 'G2701410, G27001000' for parameter 'County and PUMA'.",
               "Assigning option 'None' for parameter 'Dehumidifier'.",
               "Assigning option 'None' for parameter 'Dishwasher'.",
               "Assigning option '100% Usage' for parameter 'Dishwasher Usage Level'.",
               "Assigning option '20 ft^2' for parameter 'Door Area'.",
               "Assigning option 'Fiberglass' for parameter 'Doors'.",
               "Assigning option '0% Leakage to Outside, Uninsulated' for parameter 'Duct Leakage and Insulation'.",
               "Assigning option 'Living Space' for parameter 'Duct Location'.",
               "Assigning option '2 ft' for parameter 'Eaves'.",
               "Assigning option 'None' for parameter 'Electric Vehicle'.",
               "Assigning option 'Northern' for parameter 'Energystar Climate Zone 2023'.",
               "Assigning option '0-100%' for parameter 'Federal Poverty Level'.",
               "Assigning option 'MROWc' for parameter 'Generation And Emissions Assessment Region'.",
               "Assigning option 'None' for parameter 'Geometry Attic Type'.",
               "Assigning option 'Not Applicable' for parameter 'Geometry Building Horizontal Location MF'.",
               "Assigning option 'None' for parameter 'Geometry Building Horizontal Location SFA'.",
               "Assigning option 'Top' for parameter 'Geometry Building Level MF'.",
               "Assigning option '3' for parameter 'Geometry Building Number Units MF'.",
               "Assigning option 'None' for parameter 'Geometry Building Number Units SFA'.",
               "Assigning option '3 or 4 Unit' for parameter 'Geometry Building Type ACS'.",
               "Assigning option 'Multifamily with 2-4 Units' for parameter 'Geometry Building Type Height'.",
               "Assigning option 'Multi-Family with 2 - 4 Units' for parameter 'Geometry Building Type RECS'.",
               "Assigning option '750-999' for parameter 'Geometry Floor Area'.",
               "Assigning option '0-1499' for parameter 'Geometry Floor Area Bin'.",
               "Assigning option 'Unheated Basement' for parameter 'Geometry Foundation Type'.",
               "Assigning option 'None' for parameter 'Geometry Garage'.",
               "Assigning option 'Multi-Family with 2 - 4 Units Top Unit, Unheated Basement, No Attic, No Garage' for parameter 'Geometry Space Combination'.",
               "Assigning option '3' for parameter 'Geometry Stories'.",
               "Assigning option '3' for parameter 'Geometry Stories Low Rise'.",
               "Assigning option '<8' for parameter 'Geometry Story Bin'.",
               "Assigning option 'None' for parameter 'Geometry Wall Exterior Finish'.",
               "Assigning option 'Brick' for parameter 'Geometry Wall Type'.",
               "Assigning option '1.1' for parameter 'Ground Thermal Conductivity'.",
               "Assigning option 'AC, SEER 13' for parameter 'HVAC Cooling Efficiency'.",
               "Assigning option '100% Conditioned' for parameter 'HVAC Cooling Partial Space Conditioning'.",
               "Assigning option 'Central AC' for parameter 'HVAC Cooling Type'.",
               "Assigning option 'Yes' for parameter 'HVAC Has Ducts'.",
               "Assigning option 'None' for parameter 'HVAC Has Shared System'.",
               "Assigning option 'No' for parameter 'HVAC Has Zonal Electric Heating'.",
               "Assigning option 'Fuel Furnace, 80% AFUE' for parameter 'HVAC Heating Efficiency'.",
               "Assigning option 'Ducted Heating' for parameter 'HVAC Heating Type'.",
               "Assigning option 'Natural Gas Fuel Furnace' for parameter 'HVAC Heating Type And Fuel'.",
               "Assigning option 'None' for parameter 'HVAC Secondary Heating Efficiency'.",
               "Assigning option 'None' for parameter 'HVAC Secondary Heating Fuel'.",
               "Assigning option 'None' for parameter 'HVAC Secondary Heating Partial Space Conditioning'.",
               "Assigning option 'None' for parameter 'HVAC Shared Efficiencies'.",
               "Assigning option 'No' for parameter 'HVAC System Is Faulted'.",
               "Assigning option 'None' for parameter 'HVAC System Single Speed AC Airflow'.",
               "Assigning option 'None' for parameter 'HVAC System Single Speed AC Charge'.",
               "Assigning option 'None' for parameter 'HVAC System Single Speed ASHP Airflow'.",
               "Assigning option 'None' for parameter 'HVAC System Single Speed ASHP Charge'.",
               "Assigning option 'No' for parameter 'Has PV'.",
               "Assigning option 'Natural Gas' for parameter 'Heating Fuel'.",
               "Assigning option '70F' for parameter 'Heating Setpoint'.",
               "Assigning option 'No' for parameter 'Heating Setpoint Has Offset'.",
               "Assigning option '0F' for parameter 'Heating Setpoint Offset Magnitude'.",
               "Assigning option 'None' for parameter 'Heating Setpoint Offset Period'.",
               "Assigning option 'No Exterior Use' for parameter 'Holiday Lighting'.",
               "Assigning option 'Uninsulated' for parameter 'Hot Water Distribution'.",
               "Assigning option '100% Usage' for parameter 'Hot Water Fixtures'.",
               "Assigning option 'No' for parameter 'Household Has Tribal Persons'.",
               "Assigning option 'MISO' for parameter 'ISO RTO Region'.",
               "Assigning option '<10000' for parameter 'Income'.",
               "Assigning option '<20000' for parameter 'Income RECS2015'.",
               "Assigning option '<20000' for parameter 'Income RECS2020'.",
               "Assigning option '15 ACH50' for parameter 'Infiltration'.",
               "Assigning option 'None' for parameter 'Insulation Ceiling'.",
               "Assigning option 'Uninsulated' for parameter 'Insulation Floor'.",
               "Assigning option 'Uninsulated' for parameter 'Insulation Foundation Wall'.",
               "Assigning option 'Uninsulated' for parameter 'Insulation Rim Joist'.",
               "Assigning option 'Finished, R-30' for parameter 'Insulation Roof'.",
               "Assigning option 'None' for parameter 'Insulation Slab'.",
               "Assigning option 'Brick, 12-in, 3-wythe, R-11' for parameter 'Insulation Wall'.",
               "Assigning option 'Summer = 0.7, Winter = 0.85' for parameter 'Interior Shading'.",
               "Assigning option '100% Incandescent' for parameter 'Lighting'.",
               "Assigning option '100% Usage' for parameter 'Lighting Interior Use'.",
               "Assigning option '100% Usage' for parameter 'Lighting Other Use'.",
               "Assigning option 'CR02' for parameter 'Location Region'.",
               "Assigning option 'None' for parameter 'Mechanical Ventilation'.",
               "Assigning option 'None' for parameter 'Misc Extra Refrigerator'.",
               "Assigning option 'None' for parameter 'Misc Freezer'.",
               "Assigning option 'None' for parameter 'Misc Gas Fireplace'.",
               "Assigning option 'None' for parameter 'Misc Gas Grill'.",
               "Assigning option 'None' for parameter 'Misc Gas Lighting'.",
               "Assigning option 'None' for parameter 'Misc Hot Tub Spa'.",
               "Assigning option 'None' for parameter 'Misc Pool'.",
               "Assigning option 'None' for parameter 'Misc Pool Heater'.",
               "Assigning option 'None' for parameter 'Misc Pool Pump'.",
               "Assigning option 'None' for parameter 'Misc Well Pump'.",
               "Assigning option 'Cooling Season, 7 days/wk' for parameter 'Natural Ventilation'.",
               "Assigning option '27' for parameter 'Neighbors'.",
               "Assigning option '1' for parameter 'Occupants'.",
               "Assigning option 'South' for parameter 'Orientation'.",
               "Assigning option 'None' for parameter 'Overhangs'.",
               "Assigning option 'MN, 01000' for parameter 'PUMA'.",
               "Assigning option 'In metro area, not/partially in principal city' for parameter 'PUMA Metro Status'.",
               "Assigning option 'None' for parameter 'PV Orientation'.",
               "Assigning option 'None' for parameter 'PV System Size'.",
               "Assigning option '100%' for parameter 'Plug Load Diversity'.",
               "Assigning option '97%' for parameter 'Plug Loads'.",
               "Assigning option '43' for parameter 'REEDS Balancing Area'.",
               "Assigning option 'None' for parameter 'Radiant Barrier'.",
               "Assigning option 'Hour17' for parameter 'Range Spot Vent Hour'.",
               "Assigning option 'EF 17.6' for parameter 'Refrigerator'.",
               "Assigning option '100% Usage' for parameter 'Refrigerator Usage Level'.",
               "Assigning option 'Composition Shingles' for parameter 'Roof Material'.",
               "Assigning option 'None' for parameter 'Solar Hot Water'.",
               "Assigning option 'MN' for parameter 'State'.",
               "Assigning option 'Renter' for parameter 'Tenure'.",
               "Assigning option 'Medium' for parameter 'Usage Level'.",
               "Assigning option 'Occupied' for parameter 'Vacancy Status'.",
               "Assigning option '<1940' for parameter 'Vintage'.",
               "Assigning option '<1940' for parameter 'Vintage ACS'.",
               "Assigning option 'Natural Gas Standard' for parameter 'Water Heater Efficiency'.",
               "Assigning option 'Natural Gas' for parameter 'Water Heater Fuel'.",
               "Assigning option 'No' for parameter 'Water Heater In Unit'.",
               "Assigning option 'None' for parameter 'Water Heater Location'.",
               "Assigning option 'F9 B9 L9 R9' for parameter 'Window Areas'.",
               "Assigning option 'Single, Clear, Non-metal' for parameter 'Windows'.",
               "Calling BuildResidentialHPXML measure with arguments:\nhpxml_path -> c:/Users/Arnav/Documents/Research/Trane Technologies/resstock-3.2.0_repo/resstock-3.2.0/minneapolis_upgrades_single_3_4_unit_residence/run1/run/existing.xml \nsimulation_control_daylight_saving_enabled -> true \nsite_shielding_of_home -> normal \nsite_ground_conductivity -> 1.1 \nsite_zip_code -> 55408 \nsite_iecc_zone -> 6A \nsite_state_code -> MN \nsite_time_zone_utc_offset -> -6 \nweather_station_epw_filepath -> ../../../weather/G2700530.epw \nyear_built -> 1940 \ngeometry_unit_type -> apartment unit \ngeometry_unit_aspect_ratio -> 0.5556 \ngeometry_unit_orientation -> 180.0 \ngeometry_unit_num_bedrooms -> 2 \ngeometry_unit_num_occupants -> 1 \ngeometry_building_num_units -> 3 \ngeometry_average_ceiling_height -> 8.0 \ngeometry_garage_width -> 0.0 \ngeometry_garage_depth -> 24.0 \ngeometry_garage_protrusion -> 0.5 \ngeometry_garage_position -> Right \ngeometry_foundation_type -> AboveApartment \ngeometry_foundation_height -> 8.0 \ngeometry_foundation_height_above_grade -> 1.0 \ngeometry_rim_joist_height -> 9.25 \ngeometry_attic_type -> FlatRoof \ngeometry_roof_type -> gable \ngeometry_roof_pitch -> 6:12 \ngeometry_eaves_depth -> 2.0 \nneighbor_front_distance -> 0.0 \nneighbor_back_distance -> 0.0 \nneighbor_left_distance -> 27.0 \nneighbor_right_distance -> 27.0 \nfloor_over_foundation_assembly_r -> 5.3 \nfloor_over_garage_assembly_r -> 5.3 \nfloor_type -> WoodFrame \nfoundation_wall_type -> solid concrete \nfoundation_wall_insulation_r -> 0.0 \nfoundation_wall_insulation_location -> exterior \nfoundation_wall_insulation_distance_to_top -> 0 \nfoundation_wall_insulation_distance_to_bottom -> 0 \nrim_joist_assembly_r -> 2.5 \nslab_perimeter_insulation_r -> 0.0 \nslab_perimeter_depth -> 0.0 \nslab_under_insulation_r -> 0.0 \nslab_under_width -> 0.0 \nceiling_assembly_r -> 0.0 \nroof_material_type -> asphalt or fiberglass shingles \nroof_color -> medium \nroof_assembly_r -> 29.7 \nroof_radiant_barrier -> false \nroof_radiant_barrier_grade -> 1 \nwall_type -> StructuralBrick \nwall_siding_type -> none \nwall_color -> medium \nwall_assembly_r -> 13.3 \nwindow_front_wwr -> 0.09 \nwindow_back_wwr -> 0.09 \nwindow_left_wwr -> 0.09 \nwindow_right_wwr -> 0.09 \nwindow_area_front -> 0.0 \nwindow_area_back -> 0.0 \nwindow_area_left -> 0.0 \nwindow_area_right -> 0.0 \nwindow_aspect_ratio -> 1.333 \nwindow_fraction_operable -> 0.67 \nwindow_ufactor -> 0.84 \nwindow_shgc -> 0.63 \nwindow_interior_shading_winter -> 0.85 \nwindow_interior_shading_summer -> 0.7 \noverhangs_front_depth -> 10.0 \noverhangs_front_distance_to_top_of_window -> 1 \noverhangs_front_distance_to_bottom_of_window -> 4.0 \noverhangs_back_depth -> 0.0 \noverhangs_back_distance_to_top_of_window -> 0.0 \noverhangs_back_distance_to_bottom_of_window -> 4.0 \noverhangs_left_depth -> 0.0 \noverhangs_left_distance_to_top_of_window -> 0.0 \noverhangs_left_distance_to_bottom_of_window -> 4.0 \noverhangs_right_depth -> 0.0 \noverhangs_right_distance_to_top_of_window -> 0.0 \noverhangs_right_distance_to_bottom_of_window -> 4.0 \nskylight_area_front -> 0.0 \nskylight_area_back -> 0.0 \nskylight_area_left -> 0.0 \nskylight_area_right -> 0.0 \nskylight_ufactor -> 0.37 \nskylight_shgc -> 0.3 \ndoor_area -> 20.0 \ndoor_rvalue -> 5.0 \nair_leakage_units -> ACH \nair_leakage_house_pressure -> 50.0 \nair_leakage_value -> 15.0 \nair_leakage_type -> unit exterior only \nheating_system_type -> Furnace \nheating_system_fuel -> natural gas \nheating_system_heating_efficiency -> 0.8 \nheating_system_fraction_heat_load_served -> 1.0 \ncooling_system_type -> central air conditioner \ncooling_system_cooling_efficiency_type -> SEER \ncooling_system_cooling_efficiency -> 13.0 \ncooling_system_fraction_cool_load_served -> 1.0 \ncooling_system_is_ducted -> false \nheat_pump_type -> none \nheat_pump_heating_efficiency_type -> HSPF \nheat_pump_heating_efficiency -> 0.0 \nheat_pump_cooling_efficiency_type -> SEER \nheat_pump_cooling_efficiency -> 0.0 \nheat_pump_fraction_heat_load_served -> 1.0 \nheat_pump_fraction_cool_load_served -> 1.0 \nheat_pump_backup_type -> none \nheat_pump_backup_fuel -> electricity \nheat_pump_backup_heating_efficiency -> 1.0 \nheat_pump_sizing_methodology -> ACCA \nheating_system_2_type -> none \nheating_system_2_fuel -> electricity \nheating_system_2_heating_efficiency -> 0.0 \nheating_system_2_fraction_heat_load_served -> 0.0 \nducts_leakage_units -> Percent \nducts_supply_leakage_to_outside_value -> 0.0 \nducts_return_leakage_to_outside_value -> 0.0 \nducts_supply_location -> conditioned space \nducts_supply_insulation_r -> 0.0 \nducts_return_location -> conditioned space \nducts_return_insulation_r -> 0.0 \nmech_vent_fan_type -> none \nmech_vent_flow_rate -> 0 \nmech_vent_hours_in_operation -> 0 \nmech_vent_recovery_efficiency_type -> Unadjusted \nmech_vent_total_recovery_efficiency -> 0.0 \nmech_vent_sensible_recovery_efficiency -> 0.0 \nmech_vent_fan_power -> 0 \nmech_vent_num_units_served -> 0 \nmech_vent_2_fan_type -> none \nmech_vent_2_flow_rate -> 0.0 \nmech_vent_2_hours_in_operation -> 0.0 \nmech_vent_2_recovery_efficiency_type -> Unadjusted \nmech_vent_2_total_recovery_efficiency -> 0.0 \nmech_vent_2_sensible_recovery_efficiency -> 0.0 \nmech_vent_2_fan_power -> 0.0 \nkitchen_fans_start_hour -> 17 \nbathroom_fans_start_hour -> 23 \nwhole_house_fan_present -> false \nwhole_house_fan_flow_rate -> 0 \nwhole_house_fan_power -> 0 \nwater_heater_type -> storage water heater \nwater_heater_fuel_type -> natural gas \nwater_heater_efficiency_type -> EnergyFactor \nwater_heater_efficiency -> 0.59 \nwater_heater_recovery_efficiency -> 0.76 \nwater_heater_standby_loss -> 0 \nwater_heater_jacket_rvalue -> 0 \nwater_heater_setpoint_temperature -> 125 \nwater_heater_num_units_served -> 1 \nhot_water_distribution_system_type -> Standard \nhot_water_distribution_recirc_control_type -> no control \nhot_water_distribution_recirc_piping_length -> 0 \nhot_water_distribution_recirc_branch_piping_length -> 0 \nhot_water_distribution_recirc_pump_power -> 0 \nhot_water_distribution_pipe_r -> 0 \ndwhr_facilities_connected -> none \ndwhr_equal_flow -> true \ndwhr_efficiency -> 0.0 \nwater_fixtures_shower_low_flow -> false \nwater_fixtures_sink_low_flow -> false \nwater_fixtures_usage_multiplier -> 1.0 \nsolar_thermal_system_type -> none \nsolar_thermal_collector_area -> 40.0 \nsolar_thermal_collector_loop_type -> liquid indirect \nsolar_thermal_collector_type -> single glazing black \nsolar_thermal_collector_azimuth -> 180.0 \nsolar_thermal_collector_tilt -> roofpitch \nsolar_thermal_collector_rated_optical_efficiency -> 0.77 \nsolar_thermal_collector_rated_thermal_losses -> 0.793 \nsolar_thermal_solar_fraction -> 0.0 \npv_system_present -> false \npv_system_location -> roof \npv_system_array_azimuth -> 180.0 \npv_system_array_tilt -> roofpitch \npv_system_max_power_output -> 0.0 \npv_system_2_present -> false \npv_system_2_array_azimuth -> 0.0 \npv_system_2_array_tilt -> roofpitch \npv_system_2_max_power_output -> 0.0 \nbattery_present -> false \nlighting_present -> true \nlighting_interior_fraction_cfl -> 0.0 \nlighting_interior_fraction_lfl -> 0.0 \nlighting_interior_fraction_led -> 0.0 \nlighting_interior_usage_multiplier -> 1.0 \nlighting_exterior_fraction_cfl -> 0.0 \nlighting_exterior_fraction_lfl -> 0.0 \nlighting_exterior_fraction_led -> 0.0 \nlighting_exterior_usage_multiplier -> 1.0 \nlighting_garage_fraction_cfl -> 0.0 \nlighting_garage_fraction_lfl -> 0.0 \nlighting_garage_fraction_led -> 0.0 \nlighting_garage_usage_multiplier -> 1.0 \nholiday_lighting_present -> false \nholiday_lighting_daily_kwh -> 0 \ndehumidifier_type -> none \ndehumidifier_efficiency_type -> EnergyFactor \ndehumidifier_efficiency -> 0.0 \ndehumidifier_capacity -> 40.0 \ndehumidifier_rh_setpoint -> 0.5 \ndehumidifier_fraction_dehumidification_load_served -> 1.0 \nclothes_washer_present -> false \nclothes_washer_efficiency_type -> IntegratedModifiedEnergyFactor \nclothes_washer_efficiency -> 0 \nclothes_washer_rated_annual_kwh -> 0 \nclothes_washer_label_electric_rate -> 0 \nclothes_washer_label_gas_rate -> 0 \nclothes_washer_label_annual_gas_cost -> 0 \nclothes_washer_label_usage -> 0 \nclothes_washer_capacity -> 0 \nclothes_washer_usage_multiplier -> 1.0 \nclothes_dryer_present -> false \nclothes_dryer_fuel_type -> natural gas \nclothes_dryer_efficiency_type -> CombinedEnergyFactor \nclothes_dryer_efficiency -> 2.70 \nclothes_dryer_usage_multiplier -> 1.0 \ndishwasher_present -> false \ndishwasher_efficiency_type -> RatedAnnualkWh \ndishwasher_efficiency -> 0 \ndishwasher_label_electric_rate -> 0 \ndishwasher_label_gas_rate -> 0 \ndishwasher_label_annual_gas_cost -> 0 \ndishwasher_label_usage -> 0 \ndishwasher_place_setting_capacity -> 0 \ndishwasher_usage_multiplier -> 1.0 \nrefrigerator_present -> true \nrefrigerator_rated_annual_kwh -> 433 \nrefrigerator_usage_multiplier -> 1.0 \nextra_refrigerator_present -> false \nextra_refrigerator_rated_annual_kwh -> 0 \nextra_refrigerator_usage_multiplier -> 0 \nfreezer_present -> false \nfreezer_rated_annual_kwh -> 0 \nfreezer_usage_multiplier -> 0 \ncooking_range_oven_present -> true \ncooking_range_oven_fuel_type -> natural gas \ncooking_range_oven_is_induction -> false \ncooking_range_oven_usage_multiplier -> 1.0 \nceiling_fan_present -> true \nceiling_fan_efficiency -> 70.4 \nceiling_fan_quantity -> 1 \nceiling_fan_cooling_setpoint_temp_offset -> 0 \nmisc_plug_loads_television_present -> false \nmisc_plug_loads_other_annual_kwh -> 1383.85 \nmisc_plug_loads_other_frac_sensible -> 0.93 \nmisc_plug_loads_other_frac_latent -> 0.021 \nmisc_plug_loads_other_usage_multiplier -> 0.97 \nmisc_plug_loads_well_pump_present -> false \nmisc_plug_loads_well_pump_annual_kwh -> 0 \nmisc_plug_loads_well_pump_usage_multiplier -> 0.0 \nmisc_plug_loads_vehicle_present -> false \nmisc_plug_loads_vehicle_annual_kwh -> 0 \nmisc_plug_loads_vehicle_usage_multiplier -> 0.0 \nmisc_fuel_loads_grill_present -> false \nmisc_fuel_loads_grill_fuel_type -> natural gas \nmisc_fuel_loads_grill_annual_therm -> 0 \nmisc_fuel_loads_grill_usage_multiplier -> 0 \nmisc_fuel_loads_lighting_present -> false \nmisc_fuel_loads_lighting_fuel_type -> natural gas \nmisc_fuel_loads_lighting_annual_therm -> 0 \nmisc_fuel_loads_lighting_usage_multiplier -> 0 \nmisc_fuel_loads_fireplace_present -> false \nmisc_fuel_loads_fireplace_fuel_type -> natural gas \nmisc_fuel_loads_fireplace_annual_therm -> 0 \nmisc_fuel_loads_fireplace_usage_multiplier -> 0 \npool_present -> false \npool_pump_annual_kwh -> 0 \npool_pump_usage_multiplier -> 0 \npool_heater_type -> none \npool_heater_annual_kwh -> 0 \npool_heater_annual_therm -> 0 \npool_heater_usage_multiplier -> 0 \npermanent_spa_present -> false \npermanent_spa_pump_annual_kwh -> 0 \npermanent_spa_pump_usage_multiplier -> 0 \npermanent_spa_heater_type -> none \npermanent_spa_heater_annual_kwh -> 0 \npermanent_spa_heater_annual_therm -> 0 \npermanent_spa_heater_usage_multiplier -> 0 \ngeometry_unit_cfa -> 854.0 \nmisc_plug_loads_television_annual_kwh -> 0.0 \nmisc_plug_loads_television_usage_multiplier -> 0.0 \npv_system_num_bedrooms_served -> 2 \nhvac_control_heating_weekday_setpoint -> 70.0, 70.0, 70.0, 70.0, 70.0, 70.0, 70.0, 70.0, 70.0, 70.0, 70.0, 70.0, 70.0, 70.0, 70.0, 70.0, 70.0, 70.0, 70.0, 70.0, 70.0, 70.0, 70.0, 70.0 \nhvac_control_heating_weekend_setpoint -> 70.0, 70.0, 70.0, 70.0, 70.0, 70.0, 70.0, 70.0, 70.0, 70.0, 70.0, 70.0, 70.0, 70.0, 70.0, 70.0, 70.0, 70.0, 70.0, 70.0, 70.0, 70.0, 70.0, 70.0 \nhvac_control_cooling_weekday_setpoint -> 68.0, 68.0, 68.0, 68.0, 68.0, 68.0, 68.0, 68.0, 68.0, 68.0, 68.0, 68.0, 68.0, 68.0, 68.0, 68.0, 68.0, 68.0, 68.0, 68.0, 68.0, 68.0, 68.0, 68.0 \nhvac_control_cooling_weekend_setpoint -> 68.0, 68.0, 68.0, 68.0, 68.0, 68.0, 68.0, 68.0, 68.0, 68.0, 68.0, 68.0, 68.0, 68.0, 68.0, 68.0, 68.0, 68.0, 68.0, 68.0, 68.0, 68.0, 68.0, 68.0 \ngeometry_unit_left_wall_is_adiabatic -> false \ngeometry_unit_right_wall_is_adiabatic -> false \ngeometry_unit_front_wall_is_adiabatic -> false \ngeometry_unit_back_wall_is_adiabatic -> false \ngeometry_unit_num_floors_above_grade -> 1 \nadditional_properties -> ceiling_insulation_r=0 \nsoftware_info_program_used -> ResStock \nsoftware_info_program_version -> 3.2.0 \nsimulation_control_timestep -> 60 \nsimulation_control_run_period -> Jan 1 - Dec 31 \nsimulation_control_run_period_calendar_year -> 2007 \napply_defaults -> true \napply_validation -> true \nemissions_scenario_names -> LRMER_MidCase_15 \nemissions_types -> CO2e \nemissions_electricity_units -> kg/MWh \nemissions_electricity_values_or_filepaths -> c:/Users/Arnav/Documents/Research/Trane Technologies/resstock-3.2.0_repo/resstock-3.2.0/lib/resources/data/cambium/2022/LRMER_MidCase_15/MROWc.csv \nemissions_fossil_fuel_units -> lb/MBtu \nemissions_natural_gas_values ->  \nemissions_propane_values ->  \nemissions_fuel_oil_values ->  \nemissions_wood_values ->  \nutility_bill_scenario_names -> Bills \nutility_bill_electricity_filepaths ->  \nutility_bill_electricity_fixed_charges ->  \nutility_bill_electricity_marginal_rates ->  \nutility_bill_natural_gas_fixed_charges ->  \nutility_bill_natural_gas_marginal_rates ->  \nutility_bill_propane_fixed_charges ->  \nutility_bill_propane_marginal_rates ->  \nutility_bill_fuel_oil_fixed_charges ->  \nutility_bill_fuel_oil_marginal_rates ->  \nutility_bill_wood_fixed_charges ->  \nutility_bill_wood_marginal_rates ->  \nutility_bill_pv_compensation_types ->  \nutility_bill_pv_net_metering_annual_excess_sellback_rate_types ->  \nutility_bill_pv_net_metering_annual_excess_sellback_rates ->  \nutility_bill_pv_feed_in_tariff_rates ->  \nutility_bill_pv_monthly_grid_connection_fee_units ->  \nutility_bill_pv_monthly_grid_connection_fees -> ",
               "Wrote file: c:/Users/Arnav/Documents/Research/Trane Technologies/resstock-3.2.0_repo/resstock-3.2.0/minneapolis_upgrades_single_3_4_unit_residence/run1/run/existing.xml",
               "Calling BuildResidentialScheduleFile measure with arguments:\nhpxml_path -> c:/Users/Arnav/Documents/Research/Trane Technologies/resstock-3.2.0_repo/resstock-3.2.0/minneapolis_upgrades_single_3_4_unit_residence/run1/run/existing.xml \nhpxml_output_path -> c:/Users/Arnav/Documents/Research/Trane Technologies/resstock-3.2.0_repo/resstock-3.2.0/minneapolis_upgrades_single_3_4_unit_residence/run1/run/existing.xml \nschedules_random_seed -> 1 \noutput_csv_path -> c:/Users/Arnav/Documents/Research/Trane Technologies/resstock-3.2.0_repo/resstock-3.2.0/minneapolis_upgrades_single_3_4_unit_residence/run1/run/schedules.csv",
               "Retrieved the schedules random seed; setting it to 1.",
               "Created stochastic schedule with SimYear=2007, MinutesPerStep=60, State=MN, RandomSeed=1, GeometryNumOccupants=1.0",
               "Wrote file: c:/Users/Arnav/Documents/Research/Trane Technologies/resstock-3.2.0_repo/resstock-3.2.0/minneapolis_upgrades_single_3_4_unit_residence/run1/run/existing.xml"
            ],
            "step_result" : "Success",
            "step_values" : 
            [
               {
                  "name" : "building_id",
                  "value" : 1
               },
               {
                  "name" : "sample_weight",
                  "value" : 139647020.0
               },
               {
                  "name" : "simulation_control_timestep",
                  "value" : 60
               },
               {
                  "name" : "simulation_control_run_period_begin_month",
                  "value" : 1
               },
               {
                  "name" : "simulation_control_run_period_begin_day_of_month",
                  "value" : 1
               },
               {
                  "name" : "simulation_control_run_period_end_month",
                  "value" : 12
               },
               {
                  "name" : "simulation_control_run_period_end_day_of_month",
                  "value" : 31
               },
               {
                  "name" : "simulation_control_run_period_calendar_year",
                  "value" : 2007
               },
               {
                  "name" : "emissions_scenario_names",
                  "value" : "LRMER_MidCase_15"
               },
               {
                  "name" : "emissions_types",
                  "value" : "CO2e"
               },
               {
                  "name" : "emissions_electricity_folders",
                  "value" : "data/cambium/2022/LRMER_MidCase_15"
               },
               {
                  "name" : "emissions_natural_gas_values",
                  "value" : ""
               },
               {
                  "name" : "emissions_propane_values",
                  "value" : ""
               },
               {
                  "name" : "emissions_fuel_oil_values",
                  "value" : ""
               },
               {
                  "name" : "emissions_wood_values",
                  "value" : ""
               },
               {
                  "name" : "utility_bill_scenario_names",
                  "value" : "Bills"
               },
               {
                  "name" : "utility_bill_simple_filepaths",
                  "value" : ""
               },
               {
                  "name" : "utility_bill_detailed_filepaths",
                  "value" : ""
               },
               {
                  "name" : "ahs_region",
                  "value" : "Non-CBSA West North Central"
               },
               {
                  "name" : "aiannh_area",
                  "value" : "No"
               },
               {
                  "name" : "ashrae_iecc_climate_zone_2004",
                  "value" : "6A"
               },
               {
                  "name" : "ashrae_iecc_climate_zone_2004_2_a_split",
                  "value" : "6A"
               },
               {
                  "name" : "area_median_income",
                  "value" : "0-30%"
               },
               {
                  "name" : "bathroom_spot_vent_hour",
                  "value" : "Hour23"
               },
               {
                  "name" : "battery",
                  "value" : "None"
               },
               {
                  "name" : "bedrooms",
                  "value" : "2"
               },
               {
                  "name" : "building_america_climate_zone",
                  "value" : "Cold"
               },
               {
                  "name" : "cec_climate_zone",
                  "value" : "None"
               },
               {
                  "name" : "ceiling_fan",
                  "value" : "Standard Efficiency"
               },
               {
                  "name" : "census_division",
                  "value" : "West North Central"
               },
               {
                  "name" : "census_division_recs",
                  "value" : "West North Central"
               },
               {
                  "name" : "census_region",
                  "value" : "Midwest"
               },
               {
                  "name" : "city",
                  "value" : "MN, Minneapolis"
               },
               {
                  "name" : "clothes_dryer",
                  "value" : "None"
               },
               {
                  "name" : "clothes_dryer_usage_level",
                  "value" : "100% Usage"
               },
               {
                  "name" : "clothes_washer",
                  "value" : "None"
               },
               {
                  "name" : "clothes_washer_presence",
                  "value" : "None"
               },
               {
                  "name" : "clothes_washer_usage_level",
                  "value" : "100% Usage"
               },
               {
                  "name" : "cooking_range",
                  "value" : "Gas"
               },
               {
                  "name" : "cooking_range_usage_level",
                  "value" : "100% Usage"
               },
               {
                  "name" : "cooling_setpoint",
                  "value" : "68F"
               },
               {
                  "name" : "cooling_setpoint_has_offset",
                  "value" : "No"
               },
               {
                  "name" : "cooling_setpoint_offset_magnitude",
                  "value" : "0F"
               },
               {
                  "name" : "cooling_setpoint_offset_period",
                  "value" : "None"
               },
               {
                  "name" : "corridor",
                  "value" : "Double-Loaded Interior"
               },
               {
                  "name" : "county",
                  "value" : "MN, Hennepin County"
               },
               {
                  "name" : "county_and_puma",
                  "value" : "G2701410, G27001000"
               },
               {
                  "name" : "dehumidifier",
                  "value" : "None"
               },
               {
                  "name" : "dishwasher",
                  "value" : "None"
               },
               {
                  "name" : "dishwasher_usage_level",
                  "value" : "100% Usage"
               },
               {
                  "name" : "door_area",
                  "value" : "20 ft^2"
               },
               {
                  "name" : "doors",
                  "value" : "Fiberglass"
               },
               {
                  "name" : "duct_leakage_and_insulation",
                  "value" : "0% Leakage to Outside, Uninsulated"
               },
               {
                  "name" : "duct_location",
                  "value" : "Living Space"
               },
               {
                  "name" : "eaves",
                  "value" : "2 ft"
               },
               {
                  "name" : "electric_vehicle",
                  "value" : "None"
               },
               {
                  "name" : "energystar_climate_zone_2023",
                  "value" : "Northern"
               },
               {
                  "name" : "federal_poverty_level",
                  "value" : "0-100%"
               },
               {
                  "name" : "generation_and_emissions_assessment_region",
                  "value" : "MROWc"
               },
               {
                  "name" : "geometry_attic_type",
                  "value" : "None"
               },
               {
                  "name" : "geometry_building_horizontal_location_mf",
                  "value" : "Not Applicable"
               },
               {
                  "name" : "geometry_building_horizontal_location_sfa",
                  "value" : "None"
               },
               {
                  "name" : "geometry_building_level_mf",
                  "value" : "Top"
               },
               {
                  "name" : "geometry_building_number_units_mf",
                  "value" : "3"
               },
               {
                  "name" : "geometry_building_number_units_sfa",
                  "value" : "None"
               },
               {
                  "name" : "geometry_building_type_acs",
                  "value" : "3 or 4 Unit"
               },
               {
                  "name" : "geometry_building_type_height",
                  "value" : "Multifamily with 2-4 Units"
               },
               {
                  "name" : "geometry_building_type_recs",
                  "value" : "Multi-Family with 2 - 4 Units"
               },
               {
                  "name" : "geometry_floor_area",
                  "value" : "750-999"
               },
               {
                  "name" : "geometry_floor_area_bin",
                  "value" : "0-1499"
               },
               {
                  "name" : "geometry_foundation_type",
                  "value" : "Unheated Basement"
               },
               {
                  "name" : "geometry_garage",
                  "value" : "None"
               },
               {
                  "name" : "geometry_space_combination",
                  "value" : "Multi-Family with 2 - 4 Units Top Unit, Unheated Basement, No Attic, No Garage"
               },
               {
                  "name" : "geometry_stories",
                  "value" : "3"
               },
               {
                  "name" : "geometry_stories_low_rise",
                  "value" : "3"
               },
               {
                  "name" : "geometry_story_bin",
                  "value" : "<8"
               },
               {
                  "name" : "geometry_wall_exterior_finish",
                  "value" : "None"
               },
               {
                  "name" : "geometry_wall_type",
                  "value" : "Brick"
               },
               {
                  "name" : "ground_thermal_conductivity",
                  "value" : "1.1"
               },
               {
                  "name" : "hvac_cooling_efficiency",
                  "value" : "AC, SEER 13"
               },
               {
                  "name" : "hvac_cooling_partial_space_conditioning",
                  "value" : "100% Conditioned"
               },
               {
                  "name" : "hvac_cooling_type",
                  "value" : "Central AC"
               },
               {
                  "name" : "hvac_has_ducts",
                  "value" : "Yes"
               },
               {
                  "name" : "hvac_has_shared_system",
                  "value" : "None"
               },
               {
                  "name" : "hvac_has_zonal_electric_heating",
                  "value" : "No"
               },
               {
                  "name" : "hvac_heating_efficiency",
                  "value" : "Fuel Furnace, 80% AFUE"
               },
               {
                  "name" : "hvac_heating_type",
                  "value" : "Ducted Heating"
               },
               {
                  "name" : "hvac_heating_type_and_fuel",
                  "value" : "Natural Gas Fuel Furnace"
               },
               {
                  "name" : "hvac_secondary_heating_efficiency",
                  "value" : "None"
               },
               {
                  "name" : "hvac_secondary_heating_fuel",
                  "value" : "None"
               },
               {
                  "name" : "hvac_secondary_heating_partial_space_conditioning",
                  "value" : "None"
               },
               {
                  "name" : "hvac_shared_efficiencies",
                  "value" : "None"
               },
               {
                  "name" : "hvac_system_is_faulted",
                  "value" : "No"
               },
               {
                  "name" : "hvac_system_single_speed_ac_airflow",
                  "value" : "None"
               },
               {
                  "name" : "hvac_system_single_speed_ac_charge",
                  "value" : "None"
               },
               {
                  "name" : "hvac_system_single_speed_ashp_airflow",
                  "value" : "None"
               },
               {
                  "name" : "hvac_system_single_speed_ashp_charge",
                  "value" : "None"
               },
               {
                  "name" : "has_pv",
                  "value" : "No"
               },
               {
                  "name" : "heating_fuel",
                  "value" : "Natural Gas"
               },
               {
                  "name" : "heating_setpoint",
                  "value" : "70F"
               },
               {
                  "name" : "heating_setpoint_has_offset",
                  "value" : "No"
               },
               {
                  "name" : "heating_setpoint_offset_magnitude",
                  "value" : "0F"
               },
               {
                  "name" : "heating_setpoint_offset_period",
                  "value" : "None"
               },
               {
                  "name" : "holiday_lighting",
                  "value" : "No Exterior Use"
               },
               {
                  "name" : "hot_water_distribution",
                  "value" : "Uninsulated"
               },
               {
                  "name" : "hot_water_fixtures",
                  "value" : "100% Usage"
               },
               {
                  "name" : "household_has_tribal_persons",
                  "value" : "No"
               },
               {
                  "name" : "iso_rto_region",
                  "value" : "MISO"
               },
               {
                  "name" : "income",
                  "value" : "<10000"
               },
               {
                  "name" : "income_recs_2015",
                  "value" : "<20000"
               },
               {
                  "name" : "income_recs_2020",
                  "value" : "<20000"
               },
               {
                  "name" : "infiltration",
                  "value" : "15 ACH50"
               },
               {
                  "name" : "insulation_ceiling",
                  "value" : "None"
               },
               {
                  "name" : "insulation_floor",
                  "value" : "Uninsulated"
               },
               {
                  "name" : "insulation_foundation_wall",
                  "value" : "Uninsulated"
               },
               {
                  "name" : "insulation_rim_joist",
                  "value" : "Uninsulated"
               },
               {
                  "name" : "insulation_roof",
                  "value" : "Finished, R-30"
               },
               {
                  "name" : "insulation_slab",
                  "value" : "None"
               },
               {
                  "name" : "insulation_wall",
                  "value" : "Brick, 12-in, 3-wythe, R-11"
               },
               {
                  "name" : "interior_shading",
                  "value" : "Summer = 0.7, Winter = 0.85"
               },
               {
                  "name" : "lighting",
                  "value" : "100% Incandescent"
               },
               {
                  "name" : "lighting_interior_use",
                  "value" : "100% Usage"
               },
               {
                  "name" : "lighting_other_use",
                  "value" : "100% Usage"
               },
               {
                  "name" : "location_region",
                  "value" : "CR02"
               },
               {
                  "name" : "mechanical_ventilation",
                  "value" : "None"
               },
               {
                  "name" : "misc_extra_refrigerator",
                  "value" : "None"
               },
               {
                  "name" : "misc_freezer",
                  "value" : "None"
               },
               {
                  "name" : "misc_gas_fireplace",
                  "value" : "None"
               },
               {
                  "name" : "misc_gas_grill",
                  "value" : "None"
               },
               {
                  "name" : "misc_gas_lighting",
                  "value" : "None"
               },
               {
                  "name" : "misc_hot_tub_spa",
                  "value" : "None"
               },
               {
                  "name" : "misc_pool",
                  "value" : "None"
               },
               {
                  "name" : "misc_pool_heater",
                  "value" : "None"
               },
               {
                  "name" : "misc_pool_pump",
                  "value" : "None"
               },
               {
                  "name" : "misc_well_pump",
                  "value" : "None"
               },
               {
                  "name" : "natural_ventilation",
                  "value" : "Cooling Season, 7 days/wk"
               },
               {
                  "name" : "neighbors",
                  "value" : "27"
               },
               {
                  "name" : "occupants",
                  "value" : "1"
               },
               {
                  "name" : "orientation",
                  "value" : "South"
               },
               {
                  "name" : "overhangs",
                  "value" : "None"
               },
               {
                  "name" : "puma",
                  "value" : "MN, 01000"
               },
               {
                  "name" : "puma_metro_status",
                  "value" : "In metro area, not/partially in principal city"
               },
               {
                  "name" : "pv_orientation",
                  "value" : "None"
               },
               {
                  "name" : "pv_system_size",
                  "value" : "None"
               },
               {
                  "name" : "plug_load_diversity",
                  "value" : "100%"
               },
               {
                  "name" : "plug_loads",
                  "value" : "97%"
               },
               {
                  "name" : "reeds_balancing_area",
                  "value" : "43"
               },
               {
                  "name" : "radiant_barrier",
                  "value" : "None"
               },
               {
                  "name" : "range_spot_vent_hour",
                  "value" : "Hour17"
               },
               {
                  "name" : "refrigerator",
                  "value" : "EF 17.6"
               },
               {
                  "name" : "refrigerator_usage_level",
                  "value" : "100% Usage"
               },
               {
                  "name" : "roof_material",
                  "value" : "Composition Shingles"
               },
               {
                  "name" : "solar_hot_water",
                  "value" : "None"
               },
               {
                  "name" : "state",
                  "value" : "MN"
               },
               {
                  "name" : "tenure",
                  "value" : "Renter"
               },
               {
                  "name" : "usage_level",
                  "value" : "Medium"
               },
               {
                  "name" : "vacancy_status",
                  "value" : "Occupied"
               },
               {
                  "name" : "vintage",
                  "value" : "<1940"
               },
               {
                  "name" : "vintage_acs",
                  "value" : "<1940"
               },
               {
                  "name" : "water_heater_efficiency",
                  "value" : "Natural Gas Standard"
               },
               {
                  "name" : "water_heater_fuel",
                  "value" : "Natural Gas"
               },
               {
                  "name" : "water_heater_in_unit",
                  "value" : "No"
               },
               {
                  "name" : "water_heater_location",
                  "value" : "None"
               },
               {
                  "name" : "window_areas",
                  "value" : "F9 B9 L9 R9"
               },
               {
                  "name" : "windows",
                  "value" : "Single, Clear, Non-metal"
               },
               {
                  "name" : "emissions_electricity_units",
                  "value" : "kg/MWh"
               },
               {
                  "name" : "emissions_electricity_values_or_filepaths",
                  "value" : "c:/Users/Arnav/Documents/Research/Trane Technologies/resstock-3.2.0_repo/resstock-3.2.0/lib/resources/data/cambium/2022/LRMER_MidCase_15/MROWc.csv"
               },
               {
                  "name" : "emissions_fossil_fuel_units",
                  "value" : "lb/MBtu"
               },
               {
                  "name" : "utility_bill_electricity_filepaths",
                  "value" : ""
               },
               {
                  "name" : "utility_bill_electricity_fixed_charges",
                  "value" : ""
               },
               {
                  "name" : "utility_bill_electricity_marginal_rates",
                  "value" : ""
               },
               {
                  "name" : "utility_bill_natural_gas_fixed_charges",
                  "value" : ""
               },
               {
                  "name" : "utility_bill_natural_gas_marginal_rates",
                  "value" : ""
               },
               {
                  "name" : "utility_bill_propane_fixed_charges",
                  "value" : ""
               },
               {
                  "name" : "utility_bill_propane_marginal_rates",
                  "value" : ""
               },
               {
                  "name" : "utility_bill_fuel_oil_fixed_charges",
                  "value" : ""
               },
               {
                  "name" : "utility_bill_fuel_oil_marginal_rates",
                  "value" : ""
               },
               {
                  "name" : "utility_bill_wood_fixed_charges",
                  "value" : ""
               },
               {
                  "name" : "utility_bill_wood_marginal_rates",
                  "value" : ""
               },
               {
                  "name" : "utility_bill_pv_compensation_types",
                  "value" : ""
               },
               {
                  "name" : "utility_bill_pv_net_metering_annual_excess_sellback_rate_types",
                  "value" : ""
               },
               {
                  "name" : "utility_bill_pv_net_metering_annual_excess_sellback_rates",
                  "value" : ""
               },
               {
                  "name" : "utility_bill_pv_feed_in_tariff_rates",
                  "value" : ""
               },
               {
                  "name" : "utility_bill_pv_monthly_grid_connection_fee_units",
                  "value" : ""
               },
               {
                  "name" : "utility_bill_pv_monthly_grid_connection_fees",
                  "value" : ""
               },
               {
                  "name" : "weather_file_city",
                  "value" : "Minneapolis Crystal"
               },
               {
                  "name" : "weather_file_latitude",
                  "value" : 45.07
               },
               {
                  "name" : "weather_file_longitude",
                  "value" : -93.349999999999994
               }
            ],
            "step_warnings" : 
            [
               "The model contains existing objects and is being reset.",
               "Foundation type of 'AboveApartment' cannot have a non-zero height. Assuming height is zero.",
               "c:/Users/Arnav/Documents/Research/Trane Technologies/resstock-3.2.0_repo/resstock-3.2.0/minneapolis_upgrades_single_3_4_unit_residence/run1/run/existing.xml: No clothes washer specified, the model will not include clothes washer energy use. [context: /HPXML/Building/BuildingDetails, id: \"MyBuilding\"]",
               "c:/Users/Arnav/Documents/Research/Trane Technologies/resstock-3.2.0_repo/resstock-3.2.0/minneapolis_upgrades_single_3_4_unit_residence/run1/run/existing.xml: No clothes dryer specified, the model will not include clothes dryer energy use. [context: /HPXML/Building/BuildingDetails, id: \"MyBuilding\"]",
               "c:/Users/Arnav/Documents/Research/Trane Technologies/resstock-3.2.0_repo/resstock-3.2.0/minneapolis_upgrades_single_3_4_unit_residence/run1/run/existing.xml: No dishwasher specified, the model will not include dishwasher energy use. [context: /HPXML/Building/BuildingDetails, id: \"MyBuilding\"]",
               "c:/Users/Arnav/Documents/Research/Trane Technologies/resstock-3.2.0_repo/resstock-3.2.0/minneapolis_upgrades_single_3_4_unit_residence/run1/run/existing.xml: No clothes washer specified, the model will not include clothes washer energy use. [context: /HPXML/Building/BuildingDetails, id: \"MyBuilding\"]",
               "c:/Users/Arnav/Documents/Research/Trane Technologies/resstock-3.2.0_repo/resstock-3.2.0/minneapolis_upgrades_single_3_4_unit_residence/run1/run/existing.xml: No clothes dryer specified, the model will not include clothes dryer energy use. [context: /HPXML/Building/BuildingDetails, id: \"MyBuilding\"]",
               "c:/Users/Arnav/Documents/Research/Trane Technologies/resstock-3.2.0_repo/resstock-3.2.0/minneapolis_upgrades_single_3_4_unit_residence/run1/run/existing.xml: No dishwasher specified, the model will not include dishwasher energy use. [context: /HPXML/Building/BuildingDetails, id: \"MyBuilding\"]"
            ]
         }
      },
      {
         "arguments" : 
         {
            "add_component_loads" : false,
            "debug" : false,
            "hpxml_path" : "c:/Users/Arnav/Documents/Research/Trane Technologies/resstock-3.2.0_repo/resstock-3.2.0/minneapolis_upgrades_single_3_4_unit_residence/run1/run/home.xml",
            "output_dir" : "c:/Users/Arnav/Documents/Research/Trane Technologies/resstock-3.2.0_repo/resstock-3.2.0/minneapolis_upgrades_single_3_4_unit_residence/run1/run",
            "skip_validation" : true
         },
         "measure_dir_name" : "HPXMLtoOpenStudio",
         "result" : 
         {
            "completed_at" : "20240810T024555Z",
            "measure_class_name" : "HPXMLtoOpenStudio",
            "measure_display_name" : "HPXML to OpenStudio Translator",
            "measure_name" : "hpxm_lto_openstudio",
            "measure_taxonomy" : "Whole Building.Space Types",
            "measure_type" : "ModelMeasure",
            "measure_uid" : "b1543b30-9465-45ff-ba04-1d1f85e763bc",
            "measure_version_id" : "6d2dc12a-bac9-4979-a4db-a4172c12a591",
            "measure_version_modified" : "20231127T164925Z",
            "measure_xml_checksum" : "D8922A73",
            "started_at" : "20240810T024551Z",
            "stderr" : "",
            "stdout" : "",
            "step_errors" : [],
            "step_files" : [],
            "step_info" : [],
            "step_result" : "Success",
            "step_values" : 
            [
               {
                  "name" : "hpxml_path",
                  "value" : "c:/Users/Arnav/Documents/Research/Trane Technologies/resstock-3.2.0_repo/resstock-3.2.0/minneapolis_upgrades_single_3_4_unit_residence/run1/run/home.xml"
               },
               {
                  "name" : "output_dir",
                  "value" : "c:/Users/Arnav/Documents/Research/Trane Technologies/resstock-3.2.0_repo/resstock-3.2.0/minneapolis_upgrades_single_3_4_unit_residence/run1/run"
               },
               {
                  "name" : "debug",
                  "value" : false
               },
               {
                  "name" : "add_component_loads",
                  "value" : false
               },
               {
                  "name" : "skip_validation",
                  "value" : true
               }
            ],
            "step_warnings" : 
            [
               "The model contains existing objects and is being reset.",
               "HVAC setpoints have been automatically adjusted to prevent periods where the heating setpoint is greater than the cooling setpoint.",
               "Both 'occupants' schedule file and weekday fractions provided; the latter will be ignored.",
               "Both 'occupants' schedule file and weekend fractions provided; the latter will be ignored.",
               "Both 'occupants' schedule file and monthly multipliers provided; the latter will be ignored.",
               "Both 'ceiling_fan' schedule file and weekday fractions provided; the latter will be ignored.",
               "Both 'ceiling_fan' schedule file and weekend fractions provided; the latter will be ignored.",
               "Both 'ceiling_fan' schedule file and monthly multipliers provided; the latter will be ignored.",
               "Both 'cooking_range' schedule file and weekday fractions provided; the latter will be ignored.",
               "Both 'cooking_range' schedule file and weekend fractions provided; the latter will be ignored.",
               "Both 'cooking_range' schedule file and monthly multipliers provided; the latter will be ignored.",
               "Both 'hot_water_fixtures' schedule file and weekday fractions provided; the latter will be ignored.",
               "Both 'hot_water_fixtures' schedule file and weekend fractions provided; the latter will be ignored.",
               "Both 'hot_water_fixtures' schedule file and monthly multipliers provided; the latter will be ignored.",
               "Both 'plug_loads_other' schedule file and weekday fractions provided; the latter will be ignored.",
               "Both 'plug_loads_other' schedule file and weekend fractions provided; the latter will be ignored.",
               "Both 'plug_loads_other' schedule file and monthly multipliers provided; the latter will be ignored."
            ]
         }
      },
      {
         "arguments" : 
         {
            "add_timeseries_dst_column" : true,
            "add_timeseries_utc_column" : true,
            "include_annual_component_loads" : true,
            "include_annual_emission_end_uses" : true,
            "include_annual_emission_fuels" : true,
            "include_annual_emissions" : true,
            "include_annual_end_use_consumptions" : true,
            "include_annual_fuel_consumptions" : true,
            "include_annual_hot_water_uses" : true,
            "include_annual_hvac_summary" : true,
            "include_annual_peak_fuels" : true,
            "include_annual_peak_loads" : true,
            "include_annual_resilience" : true,
            "include_annual_system_use_consumptions" : false,
            "include_annual_total_consumptions" : true,
            "include_annual_total_loads" : true,
            "include_annual_unmet_hours" : true,
            "include_timeseries_airflows" : true,
            "include_timeseries_component_loads" : true,
            "include_timeseries_emission_end_uses" : true,
            "include_timeseries_emission_fuels" : true,
            "include_timeseries_emissions" : true,
            "include_timeseries_end_use_consumptions" : true,
            "include_timeseries_fuel_consumptions" : true,
            "include_timeseries_hot_water_uses" : true,
            "include_timeseries_resilience" : true,
            "include_timeseries_system_use_consumptions" : false,
            "include_timeseries_total_consumptions" : true,
            "include_timeseries_total_loads" : true,
            "include_timeseries_unmet_hours" : true,
            "include_timeseries_weather" : true,
            "include_timeseries_zone_temperatures" : true,
            "output_format" : "csv",
            "timeseries_frequency" : "hourly",
            "timeseries_num_decimal_places" : 3,
            "timeseries_timestamp_convention" : "end"
         },
         "measure_dir_name" : "ReportSimulationOutput",
         "result" : 
         {
            "completed_at" : "20240810T024618Z",
            "measure_class_name" : "ReportSimulationOutput",
            "measure_display_name" : "HPXML Simulation Output Report",
            "measure_name" : "report_simulation_output",
            "measure_taxonomy" : "Reporting.QAQC",
            "measure_type" : "ReportingMeasure",
            "measure_uid" : "df9d170c-c21a-4130-866d-0d46b06073fd",
            "measure_version_id" : "be0a8583-ee3d-4ba1-b96a-5670a43777ae",
            "measure_version_modified" : "20231117T151605Z",
            "measure_xml_checksum" : "9BF1E6AC",
            "started_at" : "20240810T024608Z",
            "stderr" : "",
            "stdout" : "",
            "step_errors" : [],
            "step_files" : [],
            "step_info" : 
            [
               "Wrote annual output results to c:/Users/Arnav/Documents/Research/Trane Technologies/resstock-3.2.0_repo/resstock-3.2.0/minneapolis_upgrades_single_3_4_unit_residence/run1/run/results_annual.csv.",
               "Registering 73.949 for energy_use_total_m_btu.",
               "Registering 73.949 for energy_use_net_m_btu.",
               "Registering 16.204 for fuel_use_electricity_total_m_btu.",
               "Registering 16.204 for fuel_use_electricity_net_m_btu.",
               "Registering 57.745 for fuel_use_natural_gas_total_m_btu.",
               "Registering 0.0 for fuel_use_fuel_oil_total_m_btu.",
               "Registering 0.0 for fuel_use_propane_total_m_btu.",
               "Registering 0.0 for fuel_use_wood_cord_total_m_btu.",
               "Registering 0.0 for fuel_use_wood_pellets_total_m_btu.",
               "Registering 0.0 for fuel_use_coal_total_m_btu.",
               "Registering 0.0 for end_use_electricity_heating_m_btu.",
               "Registering 1.143 for end_use_electricity_heating_fans_pumps_m_btu.",
               "Registering 0.0 for end_use_electricity_heating_heat_pump_backup_m_btu.",
               "Registering 0.0 for end_use_electricity_heating_heat_pump_backup_fans_pumps_m_btu.",
               "Registering 3.444 for end_use_electricity_cooling_m_btu.",
               "Registering 0.583 for end_use_electricity_cooling_fans_pumps_m_btu.",
               "Registering 0.0 for end_use_electricity_hot_water_m_btu.",
               "Registering 0.0 for end_use_electricity_hot_water_recirc_pump_m_btu.",
               "Registering 0.0 for end_use_electricity_hot_water_solar_thermal_pump_m_btu.",
               "Registering 4.167 for end_use_electricity_lighting_interior_m_btu.",
               "Registering 0.0 for end_use_electricity_lighting_garage_m_btu.",
               "Registering 0.486 for end_use_electricity_lighting_exterior_m_btu.",
               "Registering 0.056 for end_use_electricity_mech_vent_m_btu.",
               "Registering 0.0 for end_use_electricity_mech_vent_preheating_m_btu.",
               "Registering 0.0 for end_use_electricity_mech_vent_precooling_m_btu.",
               "Registering 0.0 for end_use_electricity_whole_house_fan_m_btu.",
               "Registering 1.479 for end_use_electricity_refrigerator_m_btu.",
               "Registering 0.0 for end_use_electricity_freezer_m_btu.",
               "Registering 0.0 for end_use_electricity_dehumidifier_m_btu.",
               "Registering 0.0 for end_use_electricity_dishwasher_m_btu.",
               "Registering 0.0 for end_use_electricity_clothes_washer_m_btu.",
               "Registering 0.0 for end_use_electricity_clothes_dryer_m_btu.",
               "Registering 0.081 for end_use_electricity_range_oven_m_btu.",
               "Registering 0.186 for end_use_electricity_ceiling_fan_m_btu.",
               "Registering 0.0 for end_use_electricity_television_m_btu.",
               "Registering 4.58 for end_use_electricity_plug_loads_m_btu.",
               "Registering 0.0 for end_use_electricity_electric_vehicle_charging_m_btu.",
               "Registering 0.0 for end_use_electricity_well_pump_m_btu.",
               "Registering 0.0 for end_use_electricity_pool_heater_m_btu.",
               "Registering 0.0 for end_use_electricity_pool_pump_m_btu.",
               "Registering 0.0 for end_use_electricity_permanent_spa_heater_m_btu.",
               "Registering 0.0 for end_use_electricity_permanent_spa_pump_m_btu.",
               "Registering 0.0 for end_use_electricity_pv_m_btu.",
               "Registering 0.0 for end_use_electricity_generator_m_btu.",
               "Registering 0.0 for end_use_electricity_battery_m_btu.",
               "Registering 44.863 for end_use_natural_gas_heating_m_btu.",
               "Registering 0.0 for end_use_natural_gas_heating_heat_pump_backup_m_btu.",
               "Registering 10.511 for end_use_natural_gas_hot_water_m_btu.",
               "Registering 0.0 for end_use_natural_gas_clothes_dryer_m_btu.",
               "Registering 2.371 for end_use_natural_gas_range_oven_m_btu.",
               "Registering 0.0 for end_use_natural_gas_mech_vent_preheating_m_btu.",
               "Registering 0.0 for end_use_natural_gas_pool_heater_m_btu.",
               "Registering 0.0 for end_use_natural_gas_permanent_spa_heater_m_btu.",
               "Registering 0.0 for end_use_natural_gas_grill_m_btu.",
               "Registering 0.0 for end_use_natural_gas_lighting_m_btu.",
               "Registering 0.0 for end_use_natural_gas_fireplace_m_btu.",
               "Registering 0.0 for end_use_natural_gas_generator_m_btu.",
               "Registering 0.0 for end_use_fuel_oil_heating_m_btu.",
               "Registering 0.0 for end_use_fuel_oil_heating_heat_pump_backup_m_btu.",
               "Registering 0.0 for end_use_fuel_oil_hot_water_m_btu.",
               "Registering 0.0 for end_use_fuel_oil_clothes_dryer_m_btu.",
               "Registering 0.0 for end_use_fuel_oil_range_oven_m_btu.",
               "Registering 0.0 for end_use_fuel_oil_mech_vent_preheating_m_btu.",
               "Registering 0.0 for end_use_fuel_oil_grill_m_btu.",
               "Registering 0.0 for end_use_fuel_oil_lighting_m_btu.",
               "Registering 0.0 for end_use_fuel_oil_fireplace_m_btu.",
               "Registering 0.0 for end_use_fuel_oil_generator_m_btu.",
               "Registering 0.0 for end_use_propane_heating_m_btu.",
               "Registering 0.0 for end_use_propane_heating_heat_pump_backup_m_btu.",
               "Registering 0.0 for end_use_propane_hot_water_m_btu.",
               "Registering 0.0 for end_use_propane_clothes_dryer_m_btu.",
               "Registering 0.0 for end_use_propane_range_oven_m_btu.",
               "Registering 0.0 for end_use_propane_mech_vent_preheating_m_btu.",
               "Registering 0.0 for end_use_propane_grill_m_btu.",
               "Registering 0.0 for end_use_propane_lighting_m_btu.",
               "Registering 0.0 for end_use_propane_fireplace_m_btu.",
               "Registering 0.0 for end_use_propane_generator_m_btu.",
               "Registering 0.0 for end_use_wood_cord_heating_m_btu.",
               "Registering 0.0 for end_use_wood_cord_heating_heat_pump_backup_m_btu.",
               "Registering 0.0 for end_use_wood_cord_hot_water_m_btu.",
               "Registering 0.0 for end_use_wood_cord_clothes_dryer_m_btu.",
               "Registering 0.0 for end_use_wood_cord_range_oven_m_btu.",
               "Registering 0.0 for end_use_wood_cord_mech_vent_preheating_m_btu.",
               "Registering 0.0 for end_use_wood_cord_grill_m_btu.",
               "Registering 0.0 for end_use_wood_cord_lighting_m_btu.",
               "Registering 0.0 for end_use_wood_cord_fireplace_m_btu.",
               "Registering 0.0 for end_use_wood_cord_generator_m_btu.",
               "Registering 0.0 for end_use_wood_pellets_heating_m_btu.",
               "Registering 0.0 for end_use_wood_pellets_heating_heat_pump_backup_m_btu.",
               "Registering 0.0 for end_use_wood_pellets_hot_water_m_btu.",
               "Registering 0.0 for end_use_wood_pellets_clothes_dryer_m_btu.",
               "Registering 0.0 for end_use_wood_pellets_range_oven_m_btu.",
               "Registering 0.0 for end_use_wood_pellets_mech_vent_preheating_m_btu.",
               "Registering 0.0 for end_use_wood_pellets_grill_m_btu.",
               "Registering 0.0 for end_use_wood_pellets_lighting_m_btu.",
               "Registering 0.0 for end_use_wood_pellets_fireplace_m_btu.",
               "Registering 0.0 for end_use_wood_pellets_generator_m_btu.",
               "Registering 0.0 for end_use_coal_heating_m_btu.",
               "Registering 0.0 for end_use_coal_heating_heat_pump_backup_m_btu.",
               "Registering 0.0 for end_use_coal_hot_water_m_btu.",
               "Registering 0.0 for end_use_coal_clothes_dryer_m_btu.",
               "Registering 0.0 for end_use_coal_range_oven_m_btu.",
               "Registering 0.0 for end_use_coal_mech_vent_preheating_m_btu.",
               "Registering 0.0 for end_use_coal_grill_m_btu.",
               "Registering 0.0 for end_use_coal_lighting_m_btu.",
               "Registering 0.0 for end_use_coal_fireplace_m_btu.",
               "Registering 0.0 for end_use_coal_generator_m_btu.",
               "Registering 10087.36 for emissions_co_2_e_lrmer_mid_case_15_total_lb.",
               "Registering 10087.36 for emissions_co_2_e_lrmer_mid_case_15_net_lb.",
               "Registering 1581.48 for emissions_co_2_e_lrmer_mid_case_15_electricity_total_lb.",
               "Registering 1581.48 for emissions_co_2_e_lrmer_mid_case_15_electricity_net_lb.",
               "Registering 8505.88 for emissions_co_2_e_lrmer_mid_case_15_natural_gas_total_lb.",
               "Registering 0.0 for emissions_co_2_e_lrmer_mid_case_15_fuel_oil_total_lb.",
               "Registering 0.0 for emissions_co_2_e_lrmer_mid_case_15_propane_total_lb.",
               "Registering 0.0 for emissions_co_2_e_lrmer_mid_case_15_wood_cord_total_lb.",
               "Registering 0.0 for emissions_co_2_e_lrmer_mid_case_15_wood_pellets_total_lb.",
               "Registering 0.0 for emissions_co_2_e_lrmer_mid_case_15_coal_total_lb.",
               "Registering 0.0 for emissions_co_2_e_lrmer_mid_case_15_electricity_heating_lb.",
               "Registering 128.3 for emissions_co_2_e_lrmer_mid_case_15_electricity_heating_fans_pumps_lb.",
               "Registering 0.0 for emissions_co_2_e_lrmer_mid_case_15_electricity_heating_heat_pump_backup_lb.",
               "Registering 0.0 for emissions_co_2_e_lrmer_mid_case_15_electricity_heating_heat_pump_backup_fans_pumps_lb.",
               "Registering 308.68 for emissions_co_2_e_lrmer_mid_case_15_electricity_cooling_lb.",
[...]
      },
      {
         "arguments" : 
         {
            "include_annual_bills" : true,
            "include_monthly_bills" : false,
            "output_format" : "csv"
         },
         "measure_dir_name" : "ReportUtilityBills",
         "result" : 
         {
            "completed_at" : "20240810T024619Z",
            "measure_class_name" : "ReportUtilityBills",
            "measure_display_name" : "Utility Bills Report",
            "measure_name" : "report_utility_bills",
            "measure_taxonomy" : "Reporting.QAQC",
            "measure_type" : "ReportingMeasure",
            "measure_uid" : "ca88a425-e59a-4bc4-af51-c7e7d1e960fe",
            "measure_version_id" : "00195856-fc00-4476-b601-ab53286b33cf",
            "measure_version_modified" : "20231117T151606Z",
            "measure_xml_checksum" : "15BF4E57",
            "started_at" : "20240810T024619Z",
            "stderr" : "",
            "stdout" : "",
            "step_errors" : [],
            "step_files" : [],
            "step_info" : 
            [
               "Wrote annual bills output to c:/Users/Arnav/Documents/Research/Trane Technologies/resstock-3.2.0_repo/resstock-3.2.0/minneapolis_upgrades_single_3_4_unit_residence/run1/run/results_bills.csv.",
               "Registering 1326.24 for bills_total_usd.",
               "Registering 144.0 for bills_electricity_fixed_usd.",
               "Registering 602.7 for bills_electricity_energy_usd.",
               "Registering 0.0 for bills_electricity_pv_credit_usd.",
               "Registering 746.7 for bills_electricity_total_usd.",
               "Registering 144.0 for bills_natural_gas_fixed_usd.",
               "Registering 435.54 for bills_natural_gas_energy_usd.",
               "Registering 579.54 for bills_natural_gas_total_usd.",
               "Registering 0.0 for bills_fuel_oil_fixed_usd.",
               "Registering 0.0 for bills_fuel_oil_energy_usd.",
               "Registering 0.0 for bills_fuel_oil_total_usd.",
               "Registering 0.0 for bills_propane_fixed_usd.",
               "Registering 0.0 for bills_propane_energy_usd.",
               "Registering 0.0 for bills_propane_total_usd.",
               "Registering 0.0 for bills_wood_cord_fixed_usd.",
               "Registering 0.0 for bills_wood_cord_energy_usd.",
               "Registering 0.0 for bills_wood_cord_total_usd.",
               "Registering 0.0 for bills_wood_pellets_fixed_usd.",
               "Registering 0.0 for bills_wood_pellets_energy_usd.",
               "Registering 0.0 for bills_wood_pellets_total_usd.",
               "Registering 0.0 for bills_coal_fixed_usd.",
               "Registering 0.0 for bills_coal_energy_usd.",
               "Registering 0.0 for bills_coal_total_usd."
            ],
            "step_result" : "Success",
            "step_values" : 
            [
               {
                  "name" : "output_format",
                  "value" : "csv"
               },
               {
                  "name" : "include_annual_bills",
                  "value" : true
               },
               {
                  "name" : "include_monthly_bills",
                  "value" : false
               },
               {
                  "name" : "monthly_timestamp_convention",
                  "value" : "start"
               },
               {
                  "name" : "bills_total_usd",
                  "value" : 1326.24
               },
               {
                  "name" : "bills_electricity_fixed_usd",
                  "value" : 144.0
               },
               {
                  "name" : "bills_electricity_energy_usd",
                  "value" : 602.70000000000005
               },
               {
                  "name" : "bills_electricity_pv_credit_usd",
                  "value" : 0.0
               },
               {
                  "name" : "bills_electricity_total_usd",
                  "value" : 746.70000000000005
               },
               {
                  "name" : "bills_natural_gas_fixed_usd",
                  "value" : 144.0
               },
               {
                  "name" : "bills_natural_gas_energy_usd",
                  "value" : 435.54000000000002
               },
               {
                  "name" : "bills_natural_gas_total_usd",
                  "value" : 579.53999999999996
               },
               {
                  "name" : "bills_fuel_oil_fixed_usd",
                  "value" : 0.0
               },
               {
                  "name" : "bills_fuel_oil_energy_usd",
                  "value" : 0.0
               },
               {
                  "name" : "bills_fuel_oil_total_usd",
                  "value" : 0.0
               },
               {
                  "name" : "bills_propane_fixed_usd",
                  "value" : 0.0
               },
               {
                  "name" : "bills_propane_energy_usd",
                  "value" : 0.0
               },
               {
                  "name" : "bills_propane_total_usd",
                  "value" : 0.0
               },
               {
                  "name" : "bills_wood_cord_fixed_usd",
                  "value" : 0.0
               },
               {
                  "name" : "bills_wood_cord_energy_usd",
                  "value" : 0.0
               },
               {
                  "name" : "bills_wood_cord_total_usd",
                  "value" : 0.0
               },
               {
                  "name" : "bills_wood_pellets_fixed_usd",
                  "value" : 0.0
               },
               {
                  "name" : "bills_wood_pellets_energy_usd",
                  "value" : 0.0
               },
               {
                  "name" : "bills_wood_pellets_total_usd",
                  "value" : 0.0
               },
               {
                  "name" : "bills_coal_fixed_usd",
                  "value" : 0.0
               },
               {
                  "name" : "bills_coal_energy_usd",
                  "value" : 0.0
               },
               {
                  "name" : "bills_coal_total_usd",
                  "value" : 0.0
               }
            ],
            "step_warnings" : []
         }
      },
      {
         "arguments" : 
         {
            "debug" : false
         },
         "measure_dir_name" : "UpgradeCosts",
         "result" : 
         {
            "completed_at" : "20240810T024620Z",
            "measure_class_name" : "UpgradeCosts",
            "measure_display_name" : "Upgrade Costs",
            "measure_name" : "upgrade_costs",
            "measure_taxonomy" : "Reporting.QAQC",
            "measure_type" : "ReportingMeasure",
            "measure_uid" : "ef51212c-acc4-48d7-9b29-cf2a5c6c4449",
            "measure_version_id" : "1940bfd7-86f5-4a10-9270-1613f201a6ee",
            "measure_version_modified" : "20231128T233415Z",
            "measure_xml_checksum" : "9BF1E6AC",
            "started_at" : "20240810T024619Z",
            "stderr" : "",
            "stdout" : "",
            "step_errors" : [],
            "step_files" : [],
            "step_info" : 
            [
               "Registering 0.0 for upgrade_cost_usd."
            ],
            "step_result" : "Success",
            "step_values" : 
            [
               {
                  "name" : "debug",
                  "value" : false
               },
               {
                  "name" : "wall_area_above_grade_conditioned_ft_2",
                  "value" : 975.79999999999995
               },
               {
                  "name" : "wall_area_above_grade_exterior_ft_2",
                  "value" : 975.79999999999995
               },
               {
                  "name" : "wall_area_below_grade_ft_2",
                  "value" : 0.0
               },
               {
                  "name" : "floor_area_conditioned_ft_2",
                  "value" : 854.0
               },
               {
                  "name" : "floor_area_conditioned_infiltration_reduction_ft_2_delta_ach_50",
                  "value" : 0.0
               },
               {
                  "name" : "floor_area_lighting_ft_2",
                  "value" : 854.0
               },
               {
                  "name" : "floor_area_foundation_ft_2",
                  "value" : 0.0
               },
               {
                  "name" : "floor_area_attic_ft_2",
                  "value" : 0.0
               },
               {
                  "name" : "floor_area_attic_insulation_increase_ft_2_delta_r_value",
                  "value" : 0.0
               },
               {
                  "name" : "roof_area_ft_2",
                  "value" : 854.0
               },
               {
                  "name" : "window_area_ft_2",
                  "value" : 87.799999999999997
               },
               {
                  "name" : "door_area_ft_2",
                  "value" : 20.0
               },
               {
                  "name" : "duct_unconditioned_surface_area_ft_2",
                  "value" : 0.0
               },
               {
                  "name" : "rim_joist_area_above_grade_exterior_ft_2",
                  "value" : 0.0
               },
               {
                  "name" : "slab_perimeter_exposed_conditioned_ft",
                  "value" : 0.0
               },
               {
                  "name" : "size_heating_system_primary_k_btu_h",
                  "value" : 23.149999999999999
               },
               {
                  "name" : "size_heating_system_secondary_k_btu_h",
                  "value" : 0.0
               },
               {
                  "name" : "size_cooling_system_primary_k_btu_h",
                  "value" : 9.9000000000000004
               },
               {
                  "name" : "size_heat_pump_backup_primary_k_btu_h",
                  "value" : 0.0
               },
               {
                  "name" : "size_water_heater_gal",
                  "value" : 30.0
               },
               {
                  "name" : "flow_rate_mechanical_ventilation_cfm",
                  "value" : 0.0
               },
               {
                  "name" : "upgrade_cost_usd",
                  "value" : 0.0
               }
            ],
            "step_warnings" : []
         }
      },
      {
         "arguments" : {},
         "measure_dir_name" : "QOIReport",
         "result" : 
         {
            "completed_at" : "20240810T024621Z",
            "measure_class_name" : "QOIReport",
            "measure_display_name" : "QOI Report",
            "measure_name" : "qoi_report",
            "measure_taxonomy" : "Reporting.QAQC",
            "measure_type" : "ReportingMeasure",
            "measure_uid" : "be0bfc7f-25c6-435a-9acd-2f5fa8ac817d",
            "measure_version_id" : "7f664618-267c-40c9-9245-03246f5e633c",
            "measure_version_modified" : "20231128T233412Z",
            "measure_xml_checksum" : "15BF4E57",
            "started_at" : "20240810T024621Z",
            "stderr" : "",
            "stdout" : "",
            "step_errors" : [],
            "step_files" : [],
            "step_info" : 
            [
               "Registering 1.63 for qoi_hourly_peak_magnitude_use_kw.",
               "Registering 5396.0 for qoi_hourly_peak_magnitude_timing_hour.",
               "Registering 0.31 for qoi_average_minimum_daily_use_heating_kw.",
               "Registering 0.42 for qoi_average_minimum_daily_use_cooling_kw.",
               "Registering 0.28 for qoi_average_minimum_daily_use_overlap_kw.",
               "Registering 1.03 for qoi_average_maximum_daily_use_heating_kw.",
               "Registering 1.23 for qoi_average_maximum_daily_use_cooling_kw.",
               "Registering 1.04 for qoi_average_maximum_daily_use_overlap_kw.",
               "Registering 18.74 for qoi_average_maximum_daily_timing_heating_hour.",
               "Registering 17.44 for qoi_average_maximum_daily_timing_cooling_hour.",
               "Registering 18.32 for qoi_average_maximum_daily_timing_overlap_hour.",
               "Registering 1.25 for qoi_average_of_top_ten_highest_peaks_use_heating_kw.",
               "Registering 1.48 for qoi_average_of_top_ten_highest_peaks_use_cooling_kw.",
               "Registering 18.09 for qoi_average_of_top_ten_highest_peaks_timing_heating_hour.",
               "Registering 18.09 for qoi_average_of_top_ten_highest_peaks_timing_cooling_hour."
            ],
            "step_result" : "Success",
            "step_values" : 
            [
               {
                  "name" : "qoi_hourly_peak_magnitude_use_kw",
                  "value" : 1.6299999999999999
               },
               {
                  "name" : "qoi_hourly_peak_magnitude_timing_hour",
                  "value" : 5396.0
               },
               {
                  "name" : "qoi_average_minimum_daily_use_heating_kw",
                  "value" : 0.31
               },
               {
                  "name" : "qoi_average_minimum_daily_use_cooling_kw",
                  "value" : 0.41999999999999998
               },
               {
                  "name" : "qoi_average_minimum_daily_use_overlap_kw",
                  "value" : 0.28000000000000003
               },
               {
                  "name" : "qoi_average_maximum_daily_use_heating_kw",
                  "value" : 1.03
               },
               {
                  "name" : "qoi_average_maximum_daily_use_cooling_kw",
                  "value" : 1.23
               },
               {
                  "name" : "qoi_average_maximum_daily_use_overlap_kw",
                  "value" : 1.04
               },
               {
                  "name" : "qoi_average_maximum_daily_timing_heating_hour",
                  "value" : 18.739999999999998
               },
               {
                  "name" : "qoi_average_maximum_daily_timing_cooling_hour",
                  "value" : 17.440000000000001
               },
               {
                  "name" : "qoi_average_maximum_daily_timing_overlap_hour",
                  "value" : 18.32
               },
               {
                  "name" : "qoi_average_of_top_ten_highest_peaks_use_heating_kw",
                  "value" : 1.25
               },
               {
                  "name" : "qoi_average_of_top_ten_highest_peaks_use_cooling_kw",
                  "value" : 1.48
               },
               {
                  "name" : "qoi_average_of_top_ten_highest_peaks_timing_heating_hour",
                  "value" : 18.09
               },
               {
                  "name" : "qoi_average_of_top_ten_highest_peaks_timing_cooling_hour",
                  "value" : 18.09
               }
            ],
            "step_warnings" : []
         }
      },
      {
         "arguments" : 
         {
            "debug" : false,
            "retain_eplusout_audit" : false,
            "retain_eplusout_bnd" : false,
            "retain_eplusout_eio" : false,
            "retain_eplusout_end" : false,
            "retain_eplusout_err" : false,
            "retain_eplusout_eso" : false,
            "retain_eplusout_mdd" : false,
            "retain_eplusout_msgpack" : false,
            "retain_eplusout_mtd" : false,
            "retain_eplusout_rdd" : false,
            "retain_eplusout_shd" : false,
            "retain_eplustbl_htm" : false,
            "retain_in_idf" : false,
            "retain_in_osm" : false,
            "retain_pre_process_idf" : false,
            "retain_schedules_csv" : false,
            "retain_stdout_energyplus" : false,
            "retain_stdout_expandobject" : false
         },
         "measure_dir_name" : "ServerDirectoryCleanup",
         "result" : 
         {
            "completed_at" : "20240810T024621Z",
            "measure_class_name" : "ServerDirectoryCleanup",
            "measure_display_name" : "Server Directory Cleanup",
            "measure_name" : "server_directory_cleanup",
            "measure_taxonomy" : "Calibration",
            "measure_type" : "ReportingMeasure",
            "measure_uid" : "ec7d04ad-0b7b-495b-825a-e1b6d28d1d3f",
            "measure_version_id" : "0187da15-5c10-4a11-86d0-40696236d4ac",
            "measure_version_modified" : "20231127T221039Z",
            "measure_xml_checksum" : "5F1EDF75",
            "started_at" : "20240810T024621Z",
            "stderr" : "",
            "stdout" : "",
            "step_errors" : [],
            "step_files" : [],
            "step_info" : 
            [
               "Deleted ./../in.osm from the run directory.",
               "Deleted ./../in.idf from the run directory.",
               "Deleted ./../pre-preprocess.idf from the run directory.",
               "Deleted ./../eplusout.end from the run directory.",
               "Deleted ./../eplusout.err from the run directory.",
               "Deleted ./../eplusout.msgpack from the run directory.",
               "Deleted ./../eplusout_hourly.msgpack from the run directory.",
               "Deleted ./../eplusout_runperiod.msgpack from the run directory.",
               "Deleted ./../eplustbl.htm from the run directory.",
               "Deleted ./../stdout-energyplus from the run directory.",
               "Deleted ./../schedules.csv from the run directory."
            ],
            "step_result" : "Success",
            "step_values" : 
            [
               {
                  "name" : "retain_in_osm",
                  "value" : false
               },
               {
                  "name" : "retain_in_idf",
                  "value" : false
               },
               {
                  "name" : "retain_pre_process_idf",
                  "value" : false
               },
               {
                  "name" : "retain_eplusout_audit",
                  "value" : false
               },
               {
                  "name" : "retain_eplusout_bnd",
                  "value" : false
               },
               {
                  "name" : "retain_eplusout_eio",
                  "value" : false
               },
               {
                  "name" : "retain_eplusout_end",
                  "value" : false
               },
               {
                  "name" : "retain_eplusout_err",
                  "value" : false
               },
               {
                  "name" : "retain_eplusout_eso",
                  "value" : false
               },
               {
                  "name" : "retain_eplusout_mdd",
                  "value" : false
               },
               {
                  "name" : "retain_eplusout_mtd",
                  "value" : false
               },
               {
                  "name" : "retain_eplusout_rdd",
                  "value" : false
               },
               {
                  "name" : "retain_eplusout_shd",
                  "value" : false
               },
               {
                  "name" : "retain_eplusout_msgpack",
                  "value" : false
               },
               {
                  "name" : "retain_eplustbl_htm",
                  "value" : false
               },
               {
                  "name" : "retain_stdout_energyplus",
                  "value" : false
               },
               {
                  "name" : "retain_stdout_expandobject",
                  "value" : false
               },
               {
                  "name" : "retain_schedules_csv",
                  "value" : false
               },
               {
                  "name" : "debug",
                  "value" : false
               }
            ],
            "step_warnings" : []
         }
      }
   ],
   "updated_at" : "20240810T024622Z"
}